Version 4
SHEET 1 1400 1116
WIRE 304 464 80 464
WIRE 736 464 528 464
WIRE 304 512 304 464
WIRE 528 512 528 464
WIRE 736 672 736 464
WIRE 80 688 80 464
WIRE 304 688 304 592
WIRE 304 688 208 688
WIRE 400 688 304 688
WIRE 304 720 304 688
WIRE 528 720 528 576
WIRE 208 768 208 688
WIRE 240 768 208 768
WIRE 400 768 400 688
WIRE 464 768 400 768
WIRE 304 832 304 816
WIRE 528 832 528 816
WIRE 80 976 80 768
WIRE 128 976 80 976
WIRE 304 976 304 912
WIRE 304 976 128 976
WIRE 528 976 528 912
WIRE 528 976 304 976
WIRE 736 976 736 752
WIRE 736 976 528 976
WIRE 128 1024 128 976
FLAG 128 1024 0
SYMBOL voltage 736 656 R0
WINDOW 123 0 0 Left 0
WINDOW 39 0 0 Left 0
WINDOW 3 -53 -107 VRight 2
SYMATTR Value PULSE(5 25 0 10m 10m 0 0 2)
SYMATTR InstName V2
SYMBOL npn 464 720 R0
SYMATTR InstName Q4
SYMATTR Value BC546B
SYMBOL res 512 816 R0
SYMATTR InstName R2
SYMATTR Value 47
SYMBOL res 288 496 R0
SYMATTR InstName R1
SYMATTR Value 1.2k
SYMBOL Contrib\\Wurth\\Optoelectronics\\LightingLED\\WL-SWTP 528 560 R0
WINDOW 38 17 15 Invisible 2
WINDOW 0 17 26 Left 2
SYMATTR InstName LED1
SYMBOL npn 240 720 R0
SYMATTR InstName Q1
SYMATTR Value BC546B
SYMBOL res 288 816 R0
SYMATTR InstName R3
SYMATTR Value 47
SYMBOL voltage 80 672 R0
WINDOW 123 0 0 Left 0
WINDOW 39 0 0 Left 0
WINDOW 3 45 50 Left 2
SYMATTR Value 12
SYMATTR InstName V1
TEXT 216 1024 Left 2 !.tran 50m
