Version 4
SHEET 1 1400 1076
WIRE 128 -256 -176 -256
WIRE 128 -224 128 -256
WIRE 128 -128 128 -144
WIRE 128 -128 0 -128
WIRE 128 -96 128 -128
WIRE -176 -16 -176 -256
WIRE 0 -16 0 -128
WIRE 128 48 128 0
WIRE 128 144 128 112
WIRE -176 256 -176 64
WIRE 0 256 0 48
WIRE 0 256 -176 256
WIRE 128 256 128 224
WIRE 128 256 0 256
WIRE 128 304 128 256
FLAG 128 304 0
SYMBOL npn 192 0 R180
WINDOW 0 -67 74 Left 2
WINDOW 3 -104 15 Left 2
SYMATTR InstName Q1
SYMATTR Value BC547B
SYMBOL res 112 -240 R0
SYMATTR InstName R1
SYMATTR Value 1k
SYMBOL voltage -176 -32 R0
WINDOW 123 0 0 Left 0
WINDOW 39 0 0 Left 0
SYMATTR InstName V1
SYMATTR Value 12
SYMBOL res 112 128 R0
SYMATTR InstName R2
SYMATTR Value 22
SYMBOL Contrib\\Wurth\\Optoelectronics\\LightingLED\\WL-SWTP 128 96 R0
WINDOW 38 17 15 Invisible 2
SYMATTR InstName LED1
SYMBOL polcap -16 -16 R0
SYMATTR InstName C2
SYMATTR Value 1000µ
SYMATTR SpiceLine V=25V
TEXT -72 304 Left 2 !.tran 1
