Version 4
SHEET 1 1400 1100
WIRE 320 432 32 432
WIRE 464 432 320 432
WIRE 608 432 464 432
WIRE 608 496 608 432
WIRE 320 560 320 432
WIRE 464 560 464 432
WIRE 608 640 608 560
WIRE 32 688 32 432
WIRE 320 688 320 640
WIRE 544 688 320 688
WIRE 320 752 320 688
WIRE 464 784 464 640
WIRE 608 784 608 736
WIRE 608 784 464 784
WIRE 608 832 608 784
WIRE 320 848 320 816
WIRE 32 976 32 768
WIRE 320 976 320 912
WIRE 320 976 32 976
WIRE 608 976 608 912
WIRE 608 976 320 976
WIRE 32 1040 32 976
FLAG 32 1040 0
SYMBOL voltage 32 672 R0
WINDOW 123 0 0 Left 0
WINDOW 39 0 0 Left 0
WINDOW 3 87 -111 VRight 2
SYMATTR Value PULSE(5 25 0 1m 1m 0 2m 2)
SYMATTR InstName V4
SYMBOL npn 544 640 R0
SYMATTR InstName Q4
SYMATTR Value BC546B
SYMBOL Contrib\\Wurth\\Optoelectronics\\LightingLED\\WL-SWTP 608 544 R0
WINDOW 38 17 15 Invisible 2
SYMATTR InstName LED1
SYMBOL diode 304 752 R0
WINDOW 0 49 29 Left 2
SYMATTR InstName D2
SYMATTR Value 1N4148
SYMBOL diode 304 848 R0
WINDOW 0 48 31 Left 2
SYMATTR InstName D1
SYMATTR Value 1N4148
SYMBOL res 304 544 R0
SYMATTR InstName R1
SYMATTR Value 4.7k
SYMBOL res 592 816 R0
SYMATTR InstName R2
SYMATTR Value 47
SYMBOL res 448 544 R0
SYMATTR InstName R3
SYMATTR Value 5.1k
TEXT 272 1032 Left 2 !.tran 5m
